8
	Energy:       0.4017524
C         -7.77170        4.87542       -0.00000
C         -6.25077        4.87542       -0.00000
F         -8.23809        3.99384       -0.95775
F         -8.23809        6.14565       -0.28460
F         -8.23809        4.48678        1.24235
H         -5.87177        5.18709       -0.99630
H         -5.87177        3.85677        0.22824
H         -5.87177        5.58241        0.76806
